version 2
run General-0-20210317-09:42:20-19684
attr configname General
attr datetime 20210317-09:42:20
attr experiment General
attr inifile omnetpp.ini
attr iterationvars ""
attr iterationvarsf ""
attr measurement ""
attr network gg1
attr processid 19684
attr repetition 0
attr replication #0
attr resultdir results
attr runnumber 0
attr seedset 0
param gg1.source.interarrival_time uniform(0,1.1)
param gg1.server.service_time uniform(0,1)

statistic gg1.server hist_waiting
field count 70722
field mean 1.507243768343
field stddev 1.6107001267951
field min 0
field max 11.425843219
field sum 106595.29378475
field sqrsum 344140.46506558
bin	-inf	0
bin	0	14879
bin	0.16666666666667	4243
bin	0.33333333333333	4242
bin	0.5	4124
bin	0.66666666666667	3939
bin	0.83333333333333	3697
bin	1	3207
bin	1.1666666666667	3062
bin	1.3333333333333	2558
bin	1.5	2498
bin	1.6666666666667	2224
bin	1.8333333333333	2071
bin	2	1811
bin	2.1666666666667	1718
bin	2.3333333333333	1390
bin	2.5	1458
bin	2.6666666666667	1283
bin	2.8333333333333	1156
bin	3	1083
bin	3.1666666666667	1016
bin	3.3333333333333	876
bin	3.5	840
bin	3.6666666666667	769
bin	3.8333333333333	650
bin	4	608
bin	4.1666666666667	557
bin	4.3333333333333	510
bin	4.5	446
bin	4.6666666666667	399
bin	4.8333333333333	343
bin	5	3065
statistic gg1.server hist_queue_size
field count 38906
field mean 3.6533696602067
field stddev 3.1927471432078
field min 0
field max 25
field sum 142138
field sqrsum 915866
attr type int
bin	-inf	0
bin	0	3460
bin	1	7441
bin	2	6949
bin	3	5336
bin	4	4133
bin	5	11587
statistic gg1.server hist_queue_size_arrival
field count 70722
field mean 3.3211447640055
field stddev 3.1748180209598
field min 0
field max 24
field sum 234878
field sqrsum 1492894
attr type int
bin	-inf	0
bin	0	10787
bin	1	13576
bin	2	11575
bin	3	9025
bin	4	6823
bin	5	18936
statistic gg1.server hist_virtual_waiting
field count 38906
field mean 2.0342996280251
field stddev 1.7947297568399
field min 0
field max 14.444948151
field sum 79146.461327946
field sqrsum 286322.75772682
bin	-inf	0
bin	0	3726
bin	0.025	271
bin	0.05	252
bin	0.075	304
bin	0.1	282
bin	0.125	257
bin	0.15	270
bin	0.175	279
bin	0.2	276
bin	0.225	256
bin	0.25	251
bin	0.275	288
bin	0.3	258
bin	0.325	226
bin	0.35	282
bin	0.375	227
bin	0.4	260
bin	0.425	284
bin	0.45	230
bin	0.475	257
bin	0.5	252
bin	0.525	261
bin	0.55	257
bin	0.575	240
bin	0.6	278
bin	0.625	226
bin	0.65	230
bin	0.675	236
bin	0.7	223
bin	0.725	209
bin	0.75	206
bin	0.775	197
bin	0.8	200
bin	0.825	172
bin	0.85	203
bin	0.875	183
bin	0.9	191
bin	0.925	190
bin	0.95	173
bin	0.975	173
bin	1	174
bin	1.025	169
bin	1.05	163
bin	1.075	193
bin	1.1	195
bin	1.125	215
bin	1.15	204
bin	1.175	227
bin	1.2	238
bin	1.225	193
bin	1.25	224
bin	1.275	221
bin	1.3	230
bin	1.325	236
bin	1.35	213
bin	1.375	228
bin	1.4	237
bin	1.425	225
bin	1.45	255
bin	1.475	266
bin	1.5	257
bin	1.525	258
bin	1.55	246
bin	1.575	261
bin	1.6	230
bin	1.625	283
bin	1.65	246
bin	1.675	257
bin	1.7	244
bin	1.725	249
bin	1.75	263
bin	1.775	232
bin	1.8	251
bin	1.825	224
bin	1.85	261
bin	1.875	270
bin	1.9	277
bin	1.925	246
bin	1.95	242
bin	1.975	242
bin	2	230
bin	2.025	237
bin	2.05	204
bin	2.075	261
bin	2.1	227
bin	2.125	216
bin	2.15	237
bin	2.175	204
bin	2.2	213
bin	2.225	207
bin	2.25	228
bin	2.275	217
bin	2.3	214
bin	2.325	208
bin	2.35	184
bin	2.375	183
bin	2.4	167
bin	2.425	182
bin	2.45	172
bin	2.475	156
bin	2.5	174
bin	2.525	160
bin	2.55	206
bin	2.575	154
bin	2.6	156
bin	2.625	167
bin	2.65	163
bin	2.675	158
bin	2.7	164
bin	2.725	151
bin	2.75	141
bin	2.775	148
bin	2.8	153
bin	2.825	158
bin	2.85	166
bin	2.875	135
bin	2.9	144
bin	2.925	156
bin	2.95	119
bin	2.975	120
bin	3	133
bin	3.025	124
bin	3.05	127
bin	3.075	124
bin	3.1	118
bin	3.125	120
bin	3.15	132
bin	3.175	117
bin	3.2	124
bin	3.225	111
bin	3.25	113
bin	3.275	125
bin	3.3	115
bin	3.325	124
bin	3.35	112
bin	3.375	91
bin	3.4	97
bin	3.425	112
bin	3.45	113
bin	3.475	112
bin	3.5	112
bin	3.525	99
bin	3.55	97
bin	3.575	100
bin	3.6	84
bin	3.625	91
bin	3.65	90
bin	3.675	74
bin	3.7	89
bin	3.725	117
bin	3.75	82
bin	3.775	95
bin	3.8	72
bin	3.825	89
bin	3.85	79
bin	3.875	87
bin	3.9	83
bin	3.925	106
bin	3.95	72
bin	3.975	73
bin	4	58
bin	4.025	104
bin	4.05	73
bin	4.075	102
bin	4.1	70
bin	4.125	79
bin	4.15	68
bin	4.175	63
bin	4.2	71
bin	4.225	70
bin	4.25	68
bin	4.275	79
bin	4.3	73
bin	4.325	76
bin	4.35	68
bin	4.375	67
bin	4.4	55
bin	4.425	60
bin	4.45	62
bin	4.475	54
bin	4.5	58
bin	4.525	55
bin	4.55	61
bin	4.575	72
bin	4.6	65
bin	4.625	54
bin	4.65	43
bin	4.675	49
bin	4.7	54
bin	4.725	46
bin	4.75	51
bin	4.775	54
bin	4.8	45
bin	4.825	57
bin	4.85	50
bin	4.875	43
bin	4.9	44
bin	4.925	41
bin	4.95	43
bin	4.975	45
bin	5	2700

